


 34 37  0  0  0  0  0  0  0  0999 V2000
   61.6893  -35.8842   54.0072 C   0  0  0  0  0  0  0  0  0  0  0  0
   60.3677  -35.9627   54.7125 C   0  0  0  0  0  0  0  0  0  0  0  0
   59.0960  -36.0154   53.9189 C   0  0  0  0  0  0  0  0  0  0  0  0
   57.7744  -36.0938   54.6242 C   0  0  0  0  0  0  0  0  0  0  0  0
   56.5027  -36.1465   53.8305 C   0  0  0  0  0  0  0  0  0  0  0  0
   55.1812  -36.2250   54.5358 C   0  0  0  0  0  0  0  0  0  0  0  0
   55.1315  -36.2507   56.0348 C   0  0  0  0  0  0  0  0  0  0  0  0
   56.4032  -36.1980   56.8284 C   0  0  0  0  0  0  0  0  0  0  0  0
   57.7247  -36.1196   56.1231 C   0  0  0  0  0  0  0  0  0  0  0  0
   58.9965  -36.0668   56.9168 C   0  0  0  0  0  0  0  0  0  0  0  0
   60.3179  -35.9884   56.2115 C   0  0  0  0  0  0  0  0  0  0  0  0
   59.1458  -35.9896   52.4199 C   0  0  0  0  0  0  0  0  0  0  0  0
   59.5883  -37.2068   51.6632 C   0  0  0  0  0  0  0  0  0  0  0  0
   59.6380  -37.1811   50.1642 C   0  0  0  0  0  0  0  0  0  0  0  0
   58.4421  -37.6098   49.3666 C   0  0  0  0  0  0  0  0  0  0  0  0
   58.6248  -38.2022   48.0007 F   0  0  0  0  0  0  0  0  0  0  0  0
   57.0637  -37.4462   49.9350 F   0  0  0  0  0  0  0  0  0  0  0  0
   58.9467  -36.0926   58.4157 C   0  0  0  0  0  0  0  0  0  0  0  0
   59.3154  -37.3434   59.1570 O   0  0  0  0  0  0  0  0  0  0  0  0
   58.5283  -34.8675   59.1734 O   0  0  0  0  0  0  0  0  0  0  0  0
   57.5756  -34.9873   60.3258 C   0  0  0  0  0  0  0  0  0  0  0  0
   56.1556  -35.4064   60.0845 C   0  0  0  0  0  0  0  0  0  0  0  0
   55.1225  -34.3813   59.7214 C   0  0  0  0  0  0  0  0  0  0  0  0
   53.7026  -34.8003   59.4801 C   0  0  0  0  0  0  0  0  0  0  0  0
   53.3158  -36.2443   59.6021 C   0  0  0  0  0  0  0  0  0  0  0  0
   54.3489  -37.2695   59.9652 C   0  0  0  0  0  0  0  0  0  0  0  0
   55.7688  -36.8505   60.2065 C   0  0  0  0  0  0  0  0  0  0  0  0
   53.9094  -36.2777   53.7422 C   0  0  0  0  0  0  0  0  0  0  0  0
   52.5849  -36.2084   54.4427 C   0  0  0  0  0  0  0  0  0  0  0  0
   51.8840  -37.4710   54.8484 N   0  0  0  0  0  0  0  0  0  0  0  0
   50.5594  -37.4017   55.5489 C   0  0  0  0  0  0  0  0  0  0  0  0
   49.9357  -36.0697   55.8436 C   0  0  0  0  0  0  0  0  0  0  0  0
   50.6366  -34.8071   55.4379 C   0  0  0  0  0  0  0  0  0  0  0  0
   51.9611  -34.8765   54.7374 C   0  0  0  0  0  0  0  0  0  0  0  0
  1  2  1  0  0  0
  2  3  2  0  0  0
  3 12  1  0  0  0
 12 13  2  0  0  0
 13 14  1  0  0  0
 14 15  1  0  0  0
 15 16  1  0  0  0
 15 17  1  0  0  0
  3  4  1  0  0  0
  4  5  2  0  0  0
  5  6  1  0  0  0
  6 28  1  0  0  0
 28 29  1  0  0  0
 29 30  2  0  0  0
 30 31  1  0  0  0
 31 32  2  0  0  0
 32 33  1  0  0  0
 33 34  2  0  0  0
  6  7  2  0  0  0
  7  8  1  0  0  0
  8  9  2  0  0  0
  9 10  1  0  0  0
 10 18  1  0  0  0
 18 19  2  0  0  0
 18 20  1  0  0  0
 20 21  1  0  0  0
 21 22  1  0  0  0
 22 23  2  0  0  0
 23 24  1  0  0  0
 24 25  2  0  0  0
 25 26  1  0  0  0
 26 27  2  0  0  0
 10 11  2  0  0  0
 11  2  1  0  0  0
  9  4  1  0  0  0
 27 22  1  0  0  0
 34 29  1  0  0  0
M  END
